Version 4
SHEET 1 880 680
WIRE -64 80 -80 80
WIRE 32 80 32 0
WIRE 32 80 16 80
WIRE 48 80 32 80
WIRE 112 96 112 0
WIRE 192 96 112 96
WIRE 320 96 320 -16
WIRE 320 96 272 96
WIRE -80 112 -80 80
WIRE 48 112 16 112
WIRE 400 112 400 -16
WIRE 400 112 384 112
WIRE 320 128 256 128
WIRE 256 208 256 128
FLAG -272 128 0
FLAG -272 48 15V
FLAG 352 80 15V
FLAG -272 208 -15V
FLAG 352 144 -15V
FLAG -80 192 0
FLAG 80 64 15V
FLAG 80 128 -15V
FLAG 16 112 0
FLAG 176 288 0
FLAG 256 272 0
SYMBOL OpAmps\\LM741 352 48 R0
SYMATTR InstName U1
SYMBOL voltage -272 32 R0
WINDOW 123 0 0 Left 0
WINDOW 39 0 0 Left 0
WINDOW 3 39 47 Left 2
SYMATTR Value 15
SYMATTR InstName V1
SYMBOL voltage -272 112 R0
WINDOW 123 0 0 Left 0
WINDOW 39 0 0 Left 0
WINDOW 3 36 66 Left 2
SYMATTR Value 15
SYMATTR InstName V2
SYMBOL voltage -80 96 R0
WINDOW 123 0 0 Left 0
WINDOW 39 0 0 Left 0
WINDOW 0 39 52 Left 2
SYMATTR InstName V3
SYMATTR Value SINE(0 1 10)
SYMBOL res 416 -32 R90
WINDOW 0 0 56 VBottom 2
WINDOW 3 32 56 VTop 2
SYMATTR InstName R1
SYMATTR Value 1k
SYMBOL res 288 80 R90
WINDOW 0 0 56 VBottom 2
WINDOW 3 32 56 VTop 2
SYMATTR InstName R2
SYMATTR Value 1k
SYMBOL OpAmps\\LM741 80 32 R0
SYMATTR InstName U2
SYMBOL res 32 64 R90
WINDOW 0 0 56 VBottom 2
WINDOW 3 32 56 VTop 2
SYMATTR InstName R4
SYMATTR Value 1K
SYMBOL res 128 -16 R90
WINDOW 0 0 56 VBottom 2
WINDOW 3 -20 102 VTop 2
SYMATTR InstName R3
SYMATTR Value 1K
SYMBOL voltage 176 192 R0
WINDOW 0 -46 8 Left 2
WINDOW 3 24 96 Invisible 2
WINDOW 123 0 0 Left 0
WINDOW 39 0 0 Left 0
SYMATTR InstName V4
SYMATTR Value PULSE(0 5 0 0.00001 0.00001 0.0004 0.002)
SYMBOL res 272 192 R90
WINDOW 0 0 56 VBottom 2
WINDOW 3 32 56 VTop 2
SYMATTR InstName R5
SYMATTR Value 1k
SYMBOL cap 240 208 R0
SYMATTR InstName C1
SYMATTR Value 1m
TEXT -80 328 Left 2 !.tran 0 15 0.00001 0.0001
